<?xml version="1.0" encoding="UTF-8"?>

<!-- generated on 2025-04-14 12:15:22 by Eclipse SUMO netconvert Version v1_22_0+1498-e858439a20c
<netconvertConfiguration xmlns:xsi="http://www.w3.org/2001/XMLSchema-instance" xsi:noNamespaceSchemaLocation="http://sumo.dlr.de/xsd/netconvertConfiguration.xsd">

    <input>
        <node-files value="nodos.nod.xml"/>
        <edge-files value="edges.edg.xml"/>
    </input>

    <output>
        <output-file value="intersection.net.xml"/>
    </output>

</netconvertConfiguration>
-->

<net version="1.20" junctionCornerDetail="5" limitTurnSpeed="5.50" xmlns:xsi="http://www.w3.org/2001/XMLSchema-instance" xsi:noNamespaceSchemaLocation="http://sumo.dlr.de/xsd/net_file.xsd">

    <location netOffset="100.00,100.00" convBoundary="0.00,0.00,200.00,200.00" origBoundary="-100.00,-100.00,100.00,100.00" projParameter="!"/>

    <edge id=":center_0" function="internal">
        <lane id=":center_0_0" index="0" speed="6.51" length="9.03" shape="95.20,110.40 94.85,107.95 93.80,106.20 92.05,105.15 89.60,104.80"/>
    </edge>
    <edge id=":center_1" function="internal">
        <lane id=":center_1_0" index="0" speed="13.89" length="20.80" shape="95.20,110.40 95.20,89.60"/>
        <lane id=":center_1_1" index="1" speed="13.89" length="20.80" shape="98.40,110.40 98.40,89.60"/>
    </edge>
    <edge id=":center_3" function="internal">
        <lane id=":center_3_0" index="0" speed="9.02" length="18.33" shape="98.40,110.40 99.48,106.14 102.28,102.28 106.14,99.48 110.40,98.40"/>
    </edge>
    <edge id=":center_4" function="internal">
        <lane id=":center_4_0" index="0" speed="3.65" length="4.67" shape="98.40,110.40 99.20,109.20 100.00,108.80 100.80,109.20 101.60,110.40"/>
    </edge>
    <edge id=":center_5" function="internal">
        <lane id=":center_5_0" index="0" speed="6.51" length="9.03" shape="110.40,104.80 107.95,105.15 106.20,106.20 105.15,107.95 104.80,110.40"/>
    </edge>
    <edge id=":center_6" function="internal">
        <lane id=":center_6_0" index="0" speed="13.89" length="20.80" shape="110.40,104.80 89.60,104.80"/>
        <lane id=":center_6_1" index="1" speed="13.89" length="20.80" shape="110.40,101.60 89.60,101.60"/>
    </edge>
    <edge id=":center_8" function="internal">
        <lane id=":center_8_0" index="0" speed="9.02" length="18.33" shape="110.40,101.60 106.14,100.52 102.28,97.72 99.48,93.86 98.40,89.60"/>
    </edge>
    <edge id=":center_9" function="internal">
        <lane id=":center_9_0" index="0" speed="3.65" length="4.67" shape="110.40,101.60 109.20,100.80 108.80,100.00 109.20,99.20 110.40,98.40"/>
    </edge>
    <edge id=":center_10" function="internal">
        <lane id=":center_10_0" index="0" speed="6.51" length="9.03" shape="104.80,89.60 105.15,92.05 106.20,93.80 107.95,94.85 110.40,95.20"/>
    </edge>
    <edge id=":center_11" function="internal">
        <lane id=":center_11_0" index="0" speed="13.89" length="20.80" shape="104.80,89.60 104.80,110.40"/>
        <lane id=":center_11_1" index="1" speed="13.89" length="20.80" shape="101.60,89.60 101.60,110.40"/>
    </edge>
    <edge id=":center_13" function="internal">
        <lane id=":center_13_0" index="0" speed="9.02" length="18.33" shape="101.60,89.60 100.52,93.86 97.72,97.72 93.86,100.52 89.60,101.60"/>
    </edge>
    <edge id=":center_14" function="internal">
        <lane id=":center_14_0" index="0" speed="3.65" length="4.67" shape="101.60,89.60 100.80,90.80 100.00,91.20 99.20,90.80 98.40,89.60"/>
    </edge>
    <edge id=":center_15" function="internal">
        <lane id=":center_15_0" index="0" speed="6.51" length="9.03" shape="89.60,95.20 92.05,94.85 93.80,93.80 94.85,92.05 95.20,89.60"/>
    </edge>
    <edge id=":center_16" function="internal">
        <lane id=":center_16_0" index="0" speed="13.89" length="20.80" shape="89.60,95.20 110.40,95.20"/>
        <lane id=":center_16_1" index="1" speed="13.89" length="20.80" shape="89.60,98.40 110.40,98.40"/>
    </edge>
    <edge id=":center_18" function="internal">
        <lane id=":center_18_0" index="0" speed="9.02" length="18.33" shape="89.60,98.40 93.86,99.48 97.72,102.28 100.52,106.14 101.60,110.40"/>
    </edge>
    <edge id=":center_19" function="internal">
        <lane id=":center_19_0" index="0" speed="3.65" length="4.67" shape="89.60,98.40 90.80,99.20 91.20,100.00 90.80,100.80 89.60,101.60"/>
    </edge>
    <edge id=":n1_0" function="internal">
        <lane id=":n1_0_0" index="0" speed="3.65" length="4.67" shape="0.00,101.60 -1.20,100.80 -1.60,100.00 -1.20,99.20 0.00,98.40"/>
    </edge>
    <edge id=":n2_0" function="internal">
        <lane id=":n2_0_0" index="0" speed="3.65" length="4.67" shape="200.00,98.40 201.20,99.20 201.60,100.00 201.20,100.80 200.00,101.60"/>
    </edge>
    <edge id=":n3_0" function="internal">
        <lane id=":n3_0_0" index="0" speed="3.65" length="4.67" shape="98.40,0.00 99.20,-1.20 100.00,-1.60 100.80,-1.20 101.60,0.00"/>
    </edge>
    <edge id=":n4_0" function="internal">
        <lane id=":n4_0_0" index="0" speed="3.65" length="4.67" shape="101.60,200.00 100.80,201.20 100.00,201.60 99.20,201.20 98.40,200.00"/>
    </edge>

    <edge id="center_to_n1" from="center" to="n1" priority="-1">
        <lane id="center_to_n1_0" index="0" speed="13.89" length="89.60" shape="89.60,104.80 0.00,104.80"/>
        <lane id="center_to_n1_1" index="1" speed="13.89" length="89.60" shape="89.60,101.60 0.00,101.60"/>
    </edge>
    <edge id="center_to_n2" from="center" to="n2" priority="-1">
        <lane id="center_to_n2_0" index="0" speed="13.89" length="89.60" shape="110.40,95.20 200.00,95.20"/>
        <lane id="center_to_n2_1" index="1" speed="13.89" length="89.60" shape="110.40,98.40 200.00,98.40"/>
    </edge>
    <edge id="center_to_n3" from="center" to="n3" priority="-1">
        <lane id="center_to_n3_0" index="0" speed="13.89" length="89.60" shape="95.20,89.60 95.20,0.00"/>
        <lane id="center_to_n3_1" index="1" speed="13.89" length="89.60" shape="98.40,89.60 98.40,0.00"/>
    </edge>
    <edge id="center_to_n4" from="center" to="n4" priority="-1">
        <lane id="center_to_n4_0" index="0" speed="13.89" length="89.60" shape="104.80,110.40 104.80,200.00"/>
        <lane id="center_to_n4_1" index="1" speed="13.89" length="89.60" shape="101.60,110.40 101.60,200.00"/>
    </edge>
    <edge id="n1_to_center" from="n1" to="center" priority="-1">
        <lane id="n1_to_center_0" index="0" speed="13.89" length="89.60" shape="0.00,95.20 89.60,95.20"/>
        <lane id="n1_to_center_1" index="1" speed="13.89" length="89.60" shape="0.00,98.40 89.60,98.40"/>
    </edge>
    <edge id="n2_to_center" from="n2" to="center" priority="-1">
        <lane id="n2_to_center_0" index="0" speed="13.89" length="89.60" shape="200.00,104.80 110.40,104.80"/>
        <lane id="n2_to_center_1" index="1" speed="13.89" length="89.60" shape="200.00,101.60 110.40,101.60"/>
    </edge>
    <edge id="n3_to_center" from="n3" to="center" priority="-1">
        <lane id="n3_to_center_0" index="0" speed="13.89" length="89.60" shape="104.80,0.00 104.80,89.60"/>
        <lane id="n3_to_center_1" index="1" speed="13.89" length="89.60" shape="101.60,0.00 101.60,89.60"/>
    </edge>
    <edge id="n4_to_center" from="n4" to="center" priority="-1">
        <lane id="n4_to_center_0" index="0" speed="13.89" length="89.60" shape="95.20,200.00 95.20,110.40"/>
        <lane id="n4_to_center_1" index="1" speed="13.89" length="89.60" shape="98.40,200.00 98.40,110.40"/>
    </edge>

    <junction id="center" type="unregulated" x="100.00" y="100.00" incLanes="n4_to_center_0 n4_to_center_1 n2_to_center_0 n2_to_center_1 n3_to_center_0 n3_to_center_1 n1_to_center_0 n1_to_center_1" intLanes=":center_0_0 :center_1_0 :center_1_1 :center_3_0 :center_4_0 :center_5_0 :center_6_0 :center_6_1 :center_8_0 :center_9_0 :center_10_0 :center_11_0 :center_11_1 :center_13_0 :center_14_0 :center_15_0 :center_16_0 :center_16_1 :center_18_0 :center_19_0" shape="93.60,110.40 106.40,110.40 106.84,108.18 107.40,107.40 108.18,106.84 109.18,106.51 110.40,106.40 110.40,93.60 108.18,93.16 107.40,92.60 106.84,91.82 106.51,90.82 106.40,89.60 93.60,89.60 93.16,91.82 92.60,92.60 91.82,93.16 90.82,93.49 89.60,93.60 89.60,106.40 91.82,106.84 92.60,107.40 93.16,108.18 93.49,109.18"/>
    <junction id="n1" type="priority" x="0.00" y="100.00" incLanes="center_to_n1_0 center_to_n1_1" intLanes=":n1_0_0" shape="0.00,100.00 0.00,106.40 0.00,100.00">
        <request index="0" response="0" foes="0" cont="0"/>
    </junction>
    <junction id="n2" type="priority" x="200.00" y="100.00" incLanes="center_to_n2_0 center_to_n2_1" intLanes=":n2_0_0" shape="200.00,100.00 200.00,93.60 200.00,100.00">
        <request index="0" response="0" foes="0" cont="0"/>
    </junction>
    <junction id="n3" type="priority" x="100.00" y="0.00" incLanes="center_to_n3_0 center_to_n3_1" intLanes=":n3_0_0" shape="100.00,0.00 93.60,0.00 100.00,0.00">
        <request index="0" response="0" foes="0" cont="0"/>
    </junction>
    <junction id="n4" type="priority" x="100.00" y="200.00" incLanes="center_to_n4_0 center_to_n4_1" intLanes=":n4_0_0" shape="100.00,200.00 106.40,200.00 100.00,200.00">
        <request index="0" response="0" foes="0" cont="0"/>
    </junction>

    <connection from="center_to_n1" to="n1_to_center" fromLane="1" toLane="1" via=":n1_0_0" dir="t" state="M"/>
    <connection from="center_to_n2" to="n2_to_center" fromLane="1" toLane="1" via=":n2_0_0" dir="t" state="M"/>
    <connection from="center_to_n3" to="n3_to_center" fromLane="1" toLane="1" via=":n3_0_0" dir="t" state="M"/>
    <connection from="center_to_n4" to="n4_to_center" fromLane="1" toLane="1" via=":n4_0_0" dir="t" state="M"/>
    <connection from="n1_to_center" to="center_to_n3" fromLane="0" toLane="0" via=":center_15_0" dir="r" state="M"/>
    <connection from="n1_to_center" to="center_to_n2" fromLane="0" toLane="0" via=":center_16_0" dir="s" state="M"/>
    <connection from="n1_to_center" to="center_to_n2" fromLane="1" toLane="1" via=":center_16_1" dir="s" state="M"/>
    <connection from="n1_to_center" to="center_to_n4" fromLane="1" toLane="1" via=":center_18_0" dir="l" state="M"/>
    <connection from="n1_to_center" to="center_to_n1" fromLane="1" toLane="1" via=":center_19_0" dir="t" state="M"/>
    <connection from="n2_to_center" to="center_to_n4" fromLane="0" toLane="0" via=":center_5_0" dir="r" state="M"/>
    <connection from="n2_to_center" to="center_to_n1" fromLane="0" toLane="0" via=":center_6_0" dir="s" state="M"/>
    <connection from="n2_to_center" to="center_to_n1" fromLane="1" toLane="1" via=":center_6_1" dir="s" state="M"/>
    <connection from="n2_to_center" to="center_to_n3" fromLane="1" toLane="1" via=":center_8_0" dir="l" state="M"/>
    <connection from="n2_to_center" to="center_to_n2" fromLane="1" toLane="1" via=":center_9_0" dir="t" state="M"/>
    <connection from="n3_to_center" to="center_to_n2" fromLane="0" toLane="0" via=":center_10_0" dir="r" state="M"/>
    <connection from="n3_to_center" to="center_to_n4" fromLane="0" toLane="0" via=":center_11_0" dir="s" state="M"/>
    <connection from="n3_to_center" to="center_to_n4" fromLane="1" toLane="1" via=":center_11_1" dir="s" state="M"/>
    <connection from="n3_to_center" to="center_to_n1" fromLane="1" toLane="1" via=":center_13_0" dir="l" state="M"/>
    <connection from="n3_to_center" to="center_to_n3" fromLane="1" toLane="1" via=":center_14_0" dir="t" state="M"/>
    <connection from="n4_to_center" to="center_to_n1" fromLane="0" toLane="0" via=":center_0_0" dir="r" state="M"/>
    <connection from="n4_to_center" to="center_to_n3" fromLane="0" toLane="0" via=":center_1_0" dir="s" state="M"/>
    <connection from="n4_to_center" to="center_to_n3" fromLane="1" toLane="1" via=":center_1_1" dir="s" state="M"/>
    <connection from="n4_to_center" to="center_to_n2" fromLane="1" toLane="1" via=":center_3_0" dir="l" state="M"/>
    <connection from="n4_to_center" to="center_to_n4" fromLane="1" toLane="1" via=":center_4_0" dir="t" state="M"/>

    <connection from=":center_0" to="center_to_n1" fromLane="0" toLane="0" dir="r" state="M"/>
    <connection from=":center_1" to="center_to_n3" fromLane="0" toLane="0" dir="s" state="M"/>
    <connection from=":center_1" to="center_to_n3" fromLane="1" toLane="1" dir="s" state="M"/>
    <connection from=":center_3" to="center_to_n2" fromLane="0" toLane="1" dir="l" state="M"/>
    <connection from=":center_4" to="center_to_n4" fromLane="0" toLane="1" dir="t" state="M"/>
    <connection from=":center_5" to="center_to_n4" fromLane="0" toLane="0" dir="r" state="M"/>
    <connection from=":center_6" to="center_to_n1" fromLane="0" toLane="0" dir="s" state="M"/>
    <connection from=":center_6" to="center_to_n1" fromLane="1" toLane="1" dir="s" state="M"/>
    <connection from=":center_8" to="center_to_n3" fromLane="0" toLane="1" dir="l" state="M"/>
    <connection from=":center_9" to="center_to_n2" fromLane="0" toLane="1" dir="t" state="M"/>
    <connection from=":center_10" to="center_to_n2" fromLane="0" toLane="0" dir="r" state="M"/>
    <connection from=":center_11" to="center_to_n4" fromLane="0" toLane="0" dir="s" state="M"/>
    <connection from=":center_11" to="center_to_n4" fromLane="1" toLane="1" dir="s" state="M"/>
    <connection from=":center_13" to="center_to_n1" fromLane="0" toLane="1" dir="l" state="M"/>
    <connection from=":center_14" to="center_to_n3" fromLane="0" toLane="1" dir="t" state="M"/>
    <connection from=":center_15" to="center_to_n3" fromLane="0" toLane="0" dir="r" state="M"/>
    <connection from=":center_16" to="center_to_n2" fromLane="0" toLane="0" dir="s" state="M"/>
    <connection from=":center_16" to="center_to_n2" fromLane="1" toLane="1" dir="s" state="M"/>
    <connection from=":center_18" to="center_to_n4" fromLane="0" toLane="1" dir="l" state="M"/>
    <connection from=":center_19" to="center_to_n1" fromLane="0" toLane="1" dir="t" state="M"/>
    <connection from=":n1_0" to="n1_to_center" fromLane="0" toLane="1" dir="t" state="M"/>
    <connection from=":n2_0" to="n2_to_center" fromLane="0" toLane="1" dir="t" state="M"/>
    <connection from=":n3_0" to="n3_to_center" fromLane="0" toLane="1" dir="t" state="M"/>
    <connection from=":n4_0" to="n4_to_center" fromLane="0" toLane="1" dir="t" state="M"/>

</net>
