<?xml version='1.0' encoding='UTF-8'?>
<routes>
  <vType id="conventional" carFollowModel="Krauss" speedDev="0.2" sigma="0.5" tau="0.0" color="200,50,50"/>
  <vType id="autonomous" carFollowModel="CACC" speedDev="0.1" sigma="0.0" tau="1.0" color="50,50,200"/>
  <route id="n1_recto" edges="n1_to_center center_to_n2"/>
  <route id="n1_izquierda" edges="n1_to_center center_to_n3"/>
  <route id="n1_derecha" edges="n1_to_center center_to_n4"/>
  <route id="n2_recto" edges="n2_to_center center_to_n1"/>
  <route id="n2_izquierda" edges="n2_to_center center_to_n4"/>
  <route id="n2_derecha" edges="n2_to_center center_to_n3"/>
  <route id="n3_recto" edges="n3_to_center center_to_n4"/>
  <route id="n3_izquierda" edges="n3_to_center center_to_n2"/>
  <route id="n3_derecha" edges="n3_to_center center_to_n1"/>
  <route id="n4_recto" edges="n4_to_center center_to_n3"/>
  <route id="n4_izquierda" edges="n4_to_center center_to_n1"/>
  <route id="n4_derecha" edges="n4_to_center center_to_n2"/>
  <flow id="flow_0" type="conventional" route="n3_izquierda" departLane="random" begin="0" end="1" period="1"/>
  <flow id="flow_1" type="conventional" route="n4_derecha" departLane="random" begin="1" end="2" period="1"/>
  <flow id="flow_2" type="conventional" route="n2_recto" departLane="random" begin="2" end="3" period="1"/>
  <flow id="flow_3" type="conventional" route="n3_derecha" departLane="random" begin="3" end="4" period="1"/>
  <flow id="flow_4" type="conventional" route="n3_derecha" departLane="random" begin="4" end="5" period="1"/>
  <flow id="flow_5" type="conventional" route="n1_recto" departLane="random" begin="5" end="6" period="1"/>
  <flow id="flow_6" type="conventional" route="n3_recto" departLane="random" begin="6" end="7" period="1"/>
  <flow id="flow_7" type="conventional" route="n1_recto" departLane="random" begin="7" end="8" period="1"/>
  <flow id="flow_8" type="conventional" route="n4_recto" departLane="random" begin="8" end="9" period="1"/>
  <flow id="flow_9" type="conventional" route="n4_izquierda" departLane="random" begin="9" end="10" period="1"/>
  <flow id="flow_10" type="conventional" route="n2_derecha" departLane="random" begin="10" end="11" period="1"/>
  <flow id="flow_11" type="conventional" route="n2_izquierda" departLane="random" begin="11" end="12" period="1"/>
  <flow id="flow_12" type="conventional" route="n1_derecha" departLane="random" begin="12" end="13" period="1"/>
  <flow id="flow_13" type="conventional" route="n2_recto" departLane="random" begin="13" end="14" period="1"/>
  <flow id="flow_14" type="conventional" route="n1_recto" departLane="random" begin="14" end="15" period="1"/>
  <flow id="flow_15" type="conventional" route="n4_recto" departLane="random" begin="15" end="16" period="1"/>
  <flow id="flow_16" type="conventional" route="n1_recto" departLane="random" begin="16" end="17" period="1"/>
  <flow id="flow_17" type="conventional" route="n4_derecha" departLane="random" begin="17" end="18" period="1"/>
  <flow id="flow_18" type="conventional" route="n1_derecha" departLane="random" begin="18" end="19" period="1"/>
  <flow id="flow_19" type="conventional" route="n4_derecha" departLane="random" begin="19" end="20" period="1"/>
  <flow id="flow_20" type="conventional" route="n4_recto" departLane="random" begin="20" end="21" period="1"/>
  <flow id="flow_21" type="conventional" route="n3_recto" departLane="random" begin="21" end="22" period="1"/>
  <flow id="flow_22" type="conventional" route="n1_recto" departLane="random" begin="22" end="23" period="1"/>
  <flow id="flow_23" type="conventional" route="n4_derecha" departLane="random" begin="23" end="24" period="1"/>
  <flow id="flow_24" type="conventional" route="n3_izquierda" departLane="random" begin="24" end="25" period="1"/>
  <flow id="flow_25" type="conventional" route="n2_izquierda" departLane="random" begin="25" end="26" period="1"/>
  <flow id="flow_26" type="conventional" route="n1_derecha" departLane="random" begin="26" end="27" period="1"/>
  <flow id="flow_27" type="conventional" route="n4_izquierda" departLane="random" begin="27" end="28" period="1"/>
  <flow id="flow_28" type="conventional" route="n1_izquierda" departLane="random" begin="28" end="29" period="1"/>
  <flow id="flow_29" type="conventional" route="n2_recto" departLane="random" begin="29" end="30" period="1"/>
  <flow id="flow_30" type="conventional" route="n3_derecha" departLane="random" begin="30" end="31" period="1"/>
  <flow id="flow_31" type="conventional" route="n2_derecha" departLane="random" begin="31" end="32" period="1"/>
  <flow id="flow_32" type="conventional" route="n2_izquierda" departLane="random" begin="32" end="33" period="1"/>
  <flow id="flow_33" type="conventional" route="n3_recto" departLane="random" begin="33" end="34" period="1"/>
  <flow id="flow_34" type="conventional" route="n1_izquierda" departLane="random" begin="34" end="35" period="1"/>
  <flow id="flow_35" type="conventional" route="n1_izquierda" departLane="random" begin="35" end="36" period="1"/>
  <flow id="flow_36" type="conventional" route="n2_recto" departLane="random" begin="36" end="37" period="1"/>
  <flow id="flow_37" type="conventional" route="n1_derecha" departLane="random" begin="37" end="38" period="1"/>
  <flow id="flow_38" type="conventional" route="n3_recto" departLane="random" begin="38" end="39" period="1"/>
  <flow id="flow_39" type="conventional" route="n1_recto" departLane="random" begin="39" end="40" period="1"/>
  <flow id="flow_40" type="conventional" route="n4_izquierda" departLane="random" begin="40" end="41" period="1"/>
  <flow id="flow_41" type="conventional" route="n2_recto" departLane="random" begin="41" end="42" period="1"/>
  <flow id="flow_42" type="conventional" route="n2_recto" departLane="random" begin="42" end="43" period="1"/>
  <flow id="flow_43" type="conventional" route="n1_derecha" departLane="random" begin="43" end="44" period="1"/>
  <flow id="flow_44" type="conventional" route="n2_recto" departLane="random" begin="44" end="45" period="1"/>
  <flow id="flow_45" type="conventional" route="n3_derecha" departLane="random" begin="45" end="46" period="1"/>
  <flow id="flow_46" type="conventional" route="n2_recto" departLane="random" begin="46" end="47" period="1"/>
  <flow id="flow_47" type="conventional" route="n2_recto" departLane="random" begin="47" end="48" period="1"/>
  <flow id="flow_48" type="conventional" route="n3_recto" departLane="random" begin="48" end="49" period="1"/>
  <flow id="flow_49" type="conventional" route="n2_recto" departLane="random" begin="49" end="50" period="1"/>
  <flow id="flow_50" type="conventional" route="n1_izquierda" departLane="random" begin="50" end="51" period="1"/>
  <flow id="flow_51" type="conventional" route="n2_izquierda" departLane="random" begin="51" end="52" period="1"/>
  <flow id="flow_52" type="conventional" route="n3_recto" departLane="random" begin="52" end="53" period="1"/>
  <flow id="flow_53" type="conventional" route="n3_recto" departLane="random" begin="53" end="54" period="1"/>
  <flow id="flow_54" type="conventional" route="n1_derecha" departLane="random" begin="54" end="55" period="1"/>
  <flow id="flow_55" type="conventional" route="n2_izquierda" departLane="random" begin="55" end="56" period="1"/>
  <flow id="flow_56" type="conventional" route="n1_recto" departLane="random" begin="56" end="57" period="1"/>
  <flow id="flow_57" type="conventional" route="n4_recto" departLane="random" begin="57" end="58" period="1"/>
  <flow id="flow_58" type="conventional" route="n3_izquierda" departLane="random" begin="58" end="59" period="1"/>
  <flow id="flow_59" type="conventional" route="n2_derecha" departLane="random" begin="59" end="60" period="1"/>
  <flow id="flow_60" type="conventional" route="n2_recto" departLane="random" begin="60" end="61" period="1"/>
  <flow id="flow_61" type="conventional" route="n2_izquierda" departLane="random" begin="61" end="62" period="1"/>
  <flow id="flow_62" type="conventional" route="n3_recto" departLane="random" begin="62" end="63" period="1"/>
  <flow id="flow_63" type="conventional" route="n3_izquierda" departLane="random" begin="63" end="64" period="1"/>
  <flow id="flow_64" type="conventional" route="n2_izquierda" departLane="random" begin="64" end="65" period="1"/>
  <flow id="flow_65" type="conventional" route="n3_derecha" departLane="random" begin="65" end="66" period="1"/>
  <flow id="flow_66" type="conventional" route="n2_izquierda" departLane="random" begin="66" end="67" period="1"/>
  <flow id="flow_67" type="conventional" route="n2_izquierda" departLane="random" begin="67" end="68" period="1"/>
  <flow id="flow_68" type="conventional" route="n1_recto" departLane="random" begin="68" end="69" period="1"/>
  <flow id="flow_69" type="conventional" route="n1_recto" departLane="random" begin="69" end="70" period="1"/>
  <flow id="flow_70" type="conventional" route="n1_recto" departLane="random" begin="70" end="71" period="1"/>
  <flow id="flow_71" type="conventional" route="n1_derecha" departLane="random" begin="71" end="72" period="1"/>
  <flow id="flow_72" type="conventional" route="n2_izquierda" departLane="random" begin="72" end="73" period="1"/>
  <flow id="flow_73" type="conventional" route="n1_derecha" departLane="random" begin="73" end="74" period="1"/>
  <flow id="flow_74" type="conventional" route="n2_derecha" departLane="random" begin="74" end="75" period="1"/>
  <flow id="flow_75" type="conventional" route="n4_izquierda" departLane="random" begin="75" end="76" period="1"/>
  <flow id="flow_76" type="conventional" route="n1_izquierda" departLane="random" begin="76" end="77" period="1"/>
  <flow id="flow_77" type="conventional" route="n3_recto" departLane="random" begin="77" end="78" period="1"/>
  <flow id="flow_78" type="conventional" route="n4_derecha" departLane="random" begin="78" end="79" period="1"/>
  <flow id="flow_79" type="conventional" route="n4_recto" departLane="random" begin="79" end="80" period="1"/>
  <flow id="flow_80" type="conventional" route="n1_recto" departLane="random" begin="80" end="81" period="1"/>
  <flow id="flow_81" type="conventional" route="n1_derecha" departLane="random" begin="81" end="82" period="1"/>
  <flow id="flow_82" type="conventional" route="n3_derecha" departLane="random" begin="82" end="83" period="1"/>
  <flow id="flow_83" type="conventional" route="n2_izquierda" departLane="random" begin="83" end="84" period="1"/>
  <flow id="flow_84" type="conventional" route="n3_izquierda" departLane="random" begin="84" end="85" period="1"/>
  <flow id="flow_85" type="conventional" route="n4_derecha" departLane="random" begin="85" end="86" period="1"/>
  <flow id="flow_86" type="conventional" route="n4_derecha" departLane="random" begin="86" end="87" period="1"/>
  <flow id="flow_87" type="conventional" route="n4_recto" departLane="random" begin="87" end="88" period="1"/>
  <flow id="flow_88" type="conventional" route="n4_derecha" departLane="random" begin="88" end="89" period="1"/>
  <flow id="flow_89" type="conventional" route="n3_derecha" departLane="random" begin="89" end="90" period="1"/>
  <flow id="flow_90" type="conventional" route="n1_izquierda" departLane="random" begin="90" end="91" period="1"/>
  <flow id="flow_91" type="conventional" route="n1_derecha" departLane="random" begin="91" end="92" period="1"/>
  <flow id="flow_92" type="conventional" route="n1_izquierda" departLane="random" begin="92" end="93" period="1"/>
  <flow id="flow_93" type="conventional" route="n3_izquierda" departLane="random" begin="93" end="94" period="1"/>
  <flow id="flow_94" type="conventional" route="n2_recto" departLane="random" begin="94" end="95" period="1"/>
  <flow id="flow_95" type="conventional" route="n2_izquierda" departLane="random" begin="95" end="96" period="1"/>
  <flow id="flow_96" type="conventional" route="n1_derecha" departLane="random" begin="96" end="97" period="1"/>
  <flow id="flow_97" type="conventional" route="n2_izquierda" departLane="random" begin="97" end="98" period="1"/>
  <flow id="flow_98" type="conventional" route="n2_izquierda" departLane="random" begin="98" end="99" period="1"/>
  <flow id="flow_99" type="conventional" route="n2_izquierda" departLane="random" begin="99" end="100" period="1"/>
</routes>
