<?xml version='1.0' encoding='UTF-8'?>
<routes>
  <vType id="conventional" carFollowModel="Krauss" accel="2.6" decel="4.5" tau="1.2" minGap="2.5" sigma="0.5" speedDev="0.2" color="200,50,50"/>
  <vType id="autonomous" carFollowModel="CACC" accel="3.0" decel="6.0" minGap="1.0" sigma="0.0" speedDev="0.1" color="50,50,200"/>
  <route id="n1_recto" edges="n1_to_center center_to_n2"/>
  <route id="n1_izquierda" edges="n1_to_center center_to_n3"/>
  <route id="n1_derecha" edges="n1_to_center center_to_n4"/>
  <route id="n2_recto" edges="n2_to_center center_to_n1"/>
  <route id="n2_izquierda" edges="n2_to_center center_to_n4"/>
  <route id="n2_derecha" edges="n2_to_center center_to_n3"/>
  <route id="n3_recto" edges="n3_to_center center_to_n4"/>
  <route id="n3_izquierda" edges="n3_to_center center_to_n2"/>
  <route id="n3_derecha" edges="n3_to_center center_to_n1"/>
  <route id="n4_recto" edges="n4_to_center center_to_n3"/>
  <route id="n4_izquierda" edges="n4_to_center center_to_n1"/>
  <route id="n4_derecha" edges="n4_to_center center_to_n2"/>
  <flow id="flow_0" type="conventional" route="n2_izquierda" departLane="best" departSpeed="max" begin="0.00" end="1.00" period="1"/>
  <flow id="flow_1" type="autonomous" route="n1_izquierda" departLane="best" departSpeed="max" begin="0.83" end="1.83" period="1"/>
  <flow id="flow_2" type="conventional" route="n3_izquierda" departLane="best" departSpeed="max" begin="1.67" end="2.67" period="1"/>
  <flow id="flow_3" type="conventional" route="n3_derecha" departLane="best" departSpeed="max" begin="2.50" end="3.50" period="1"/>
  <flow id="flow_4" type="conventional" route="n2_derecha" departLane="best" departSpeed="max" begin="3.33" end="4.33" period="1"/>
  <flow id="flow_5" type="autonomous" route="n4_recto" departLane="best" departSpeed="max" begin="4.17" end="5.17" period="1"/>
  <flow id="flow_6" type="conventional" route="n1_derecha" departLane="best" departSpeed="max" begin="5.00" end="6.00" period="1"/>
  <flow id="flow_7" type="conventional" route="n2_izquierda" departLane="best" departSpeed="max" begin="5.83" end="6.83" period="1"/>
  <flow id="flow_8" type="autonomous" route="n3_recto" departLane="best" departSpeed="max" begin="6.67" end="7.67" period="1"/>
  <flow id="flow_9" type="conventional" route="n4_derecha" departLane="best" departSpeed="max" begin="7.50" end="8.50" period="1"/>
  <flow id="flow_10" type="autonomous" route="n3_izquierda" departLane="best" departSpeed="max" begin="8.33" end="9.33" period="1"/>
  <flow id="flow_11" type="conventional" route="n2_izquierda" departLane="best" departSpeed="max" begin="9.17" end="10.17" period="1"/>
  <flow id="flow_12" type="conventional" route="n2_derecha" departLane="best" departSpeed="max" begin="10.00" end="11.00" period="1"/>
  <flow id="flow_13" type="conventional" route="n1_derecha" departLane="best" departSpeed="max" begin="10.83" end="11.83" period="1"/>
  <flow id="flow_14" type="conventional" route="n1_izquierda" departLane="best" departSpeed="max" begin="11.67" end="12.67" period="1"/>
  <flow id="flow_15" type="autonomous" route="n3_izquierda" departLane="best" departSpeed="max" begin="12.50" end="13.50" period="1"/>
  <flow id="flow_16" type="conventional" route="n2_recto" departLane="best" departSpeed="max" begin="13.33" end="14.33" period="1"/>
  <flow id="flow_17" type="autonomous" route="n3_izquierda" departLane="best" departSpeed="max" begin="14.17" end="15.17" period="1"/>
  <flow id="flow_18" type="conventional" route="n2_recto" departLane="best" departSpeed="max" begin="15.00" end="16.00" period="1"/>
  <flow id="flow_19" type="autonomous" route="n1_izquierda" departLane="best" departSpeed="max" begin="15.83" end="16.83" period="1"/>
  <flow id="flow_20" type="autonomous" route="n2_izquierda" departLane="best" departSpeed="max" begin="16.67" end="17.67" period="1"/>
  <flow id="flow_21" type="conventional" route="n1_derecha" departLane="best" departSpeed="max" begin="17.50" end="18.50" period="1"/>
  <flow id="flow_22" type="autonomous" route="n4_izquierda" departLane="best" departSpeed="max" begin="18.33" end="19.33" period="1"/>
  <flow id="flow_23" type="conventional" route="n3_derecha" departLane="best" departSpeed="max" begin="19.17" end="20.17" period="1"/>
  <flow id="flow_24" type="conventional" route="n2_izquierda" departLane="best" departSpeed="max" begin="20.00" end="21.00" period="1"/>
  <flow id="flow_25" type="conventional" route="n1_derecha" departLane="best" departSpeed="max" begin="20.83" end="21.83" period="1"/>
  <flow id="flow_26" type="conventional" route="n3_recto" departLane="best" departSpeed="max" begin="21.67" end="22.67" period="1"/>
  <flow id="flow_27" type="conventional" route="n2_recto" departLane="best" departSpeed="max" begin="22.50" end="23.50" period="1"/>
  <flow id="flow_28" type="conventional" route="n2_recto" departLane="best" departSpeed="max" begin="23.33" end="24.33" period="1"/>
  <flow id="flow_29" type="conventional" route="n3_derecha" departLane="best" departSpeed="max" begin="24.17" end="25.17" period="1"/>
  <flow id="flow_30" type="autonomous" route="n3_derecha" departLane="best" departSpeed="max" begin="25.00" end="26.00" period="1"/>
  <flow id="flow_31" type="conventional" route="n1_derecha" departLane="best" departSpeed="max" begin="25.83" end="26.83" period="1"/>
  <flow id="flow_32" type="conventional" route="n2_recto" departLane="best" departSpeed="max" begin="26.67" end="27.67" period="1"/>
  <flow id="flow_33" type="conventional" route="n2_derecha" departLane="best" departSpeed="max" begin="27.50" end="28.50" period="1"/>
  <flow id="flow_34" type="autonomous" route="n4_derecha" departLane="best" departSpeed="max" begin="28.33" end="29.33" period="1"/>
  <flow id="flow_35" type="conventional" route="n4_izquierda" departLane="best" departSpeed="max" begin="29.17" end="30.17" period="1"/>
  <flow id="flow_36" type="autonomous" route="n4_recto" departLane="best" departSpeed="max" begin="30.00" end="31.00" period="1"/>
  <flow id="flow_37" type="conventional" route="n3_recto" departLane="best" departSpeed="max" begin="30.83" end="31.83" period="1"/>
  <flow id="flow_38" type="conventional" route="n4_izquierda" departLane="best" departSpeed="max" begin="31.67" end="32.67" period="1"/>
  <flow id="flow_39" type="conventional" route="n1_recto" departLane="best" departSpeed="max" begin="32.50" end="33.50" period="1"/>
  <flow id="flow_40" type="conventional" route="n3_derecha" departLane="best" departSpeed="max" begin="33.33" end="34.33" period="1"/>
  <flow id="flow_41" type="conventional" route="n2_derecha" departLane="best" departSpeed="max" begin="34.17" end="35.17" period="1"/>
  <flow id="flow_42" type="conventional" route="n2_recto" departLane="best" departSpeed="max" begin="35.00" end="36.00" period="1"/>
  <flow id="flow_43" type="conventional" route="n4_izquierda" departLane="best" departSpeed="max" begin="35.83" end="36.83" period="1"/>
  <flow id="flow_44" type="conventional" route="n2_recto" departLane="best" departSpeed="max" begin="36.67" end="37.67" period="1"/>
  <flow id="flow_45" type="conventional" route="n3_derecha" departLane="best" departSpeed="max" begin="37.50" end="38.50" period="1"/>
  <flow id="flow_46" type="conventional" route="n1_recto" departLane="best" departSpeed="max" begin="38.33" end="39.33" period="1"/>
  <flow id="flow_47" type="conventional" route="n1_recto" departLane="best" departSpeed="max" begin="39.17" end="40.17" period="1"/>
  <flow id="flow_48" type="autonomous" route="n2_derecha" departLane="best" departSpeed="max" begin="40.00" end="41.00" period="1"/>
  <flow id="flow_49" type="conventional" route="n3_izquierda" departLane="best" departSpeed="max" begin="40.83" end="41.83" period="1"/>
  <flow id="flow_50" type="conventional" route="n2_recto" departLane="best" departSpeed="max" begin="41.67" end="42.67" period="1"/>
  <flow id="flow_51" type="autonomous" route="n4_izquierda" departLane="best" departSpeed="max" begin="42.50" end="43.50" period="1"/>
  <flow id="flow_52" type="conventional" route="n1_recto" departLane="best" departSpeed="max" begin="43.33" end="44.33" period="1"/>
  <flow id="flow_53" type="conventional" route="n3_recto" departLane="best" departSpeed="max" begin="44.17" end="45.17" period="1"/>
  <flow id="flow_54" type="conventional" route="n3_recto" departLane="best" departSpeed="max" begin="45.00" end="46.00" period="1"/>
  <flow id="flow_55" type="conventional" route="n3_izquierda" departLane="best" departSpeed="max" begin="45.83" end="46.83" period="1"/>
  <flow id="flow_56" type="conventional" route="n3_recto" departLane="best" departSpeed="max" begin="46.67" end="47.67" period="1"/>
  <flow id="flow_57" type="conventional" route="n2_derecha" departLane="best" departSpeed="max" begin="47.50" end="48.50" period="1"/>
  <flow id="flow_58" type="conventional" route="n4_izquierda" departLane="best" departSpeed="max" begin="48.33" end="49.33" period="1"/>
  <flow id="flow_59" type="conventional" route="n4_recto" departLane="best" departSpeed="max" begin="49.17" end="50.17" period="1"/>
  <flow id="flow_60" type="conventional" route="n3_derecha" departLane="best" departSpeed="max" begin="50.00" end="51.00" period="1"/>
  <flow id="flow_61" type="conventional" route="n2_recto" departLane="best" departSpeed="max" begin="50.83" end="51.83" period="1"/>
  <flow id="flow_62" type="conventional" route="n4_recto" departLane="best" departSpeed="max" begin="51.67" end="52.67" period="1"/>
  <flow id="flow_63" type="conventional" route="n4_recto" departLane="best" departSpeed="max" begin="52.50" end="53.50" period="1"/>
  <flow id="flow_64" type="conventional" route="n4_derecha" departLane="best" departSpeed="max" begin="53.33" end="54.33" period="1"/>
  <flow id="flow_65" type="autonomous" route="n4_recto" departLane="best" departSpeed="max" begin="54.17" end="55.17" period="1"/>
  <flow id="flow_66" type="conventional" route="n3_izquierda" departLane="best" departSpeed="max" begin="55.00" end="56.00" period="1"/>
  <flow id="flow_67" type="conventional" route="n2_izquierda" departLane="best" departSpeed="max" begin="55.83" end="56.83" period="1"/>
  <flow id="flow_68" type="conventional" route="n3_izquierda" departLane="best" departSpeed="max" begin="56.67" end="57.67" period="1"/>
  <flow id="flow_69" type="conventional" route="n4_recto" departLane="best" departSpeed="max" begin="57.50" end="58.50" period="1"/>
  <flow id="flow_70" type="conventional" route="n1_recto" departLane="best" departSpeed="max" begin="58.33" end="59.33" period="1"/>
  <flow id="flow_71" type="conventional" route="n1_recto" departLane="best" departSpeed="max" begin="59.17" end="60.17" period="1"/>
  <flow id="flow_72" type="conventional" route="n2_izquierda" departLane="best" departSpeed="max" begin="60.00" end="61.00" period="1"/>
  <flow id="flow_73" type="conventional" route="n4_derecha" departLane="best" departSpeed="max" begin="60.83" end="61.83" period="1"/>
  <flow id="flow_74" type="autonomous" route="n4_recto" departLane="best" departSpeed="max" begin="61.67" end="62.67" period="1"/>
  <flow id="flow_75" type="autonomous" route="n1_izquierda" departLane="best" departSpeed="max" begin="62.50" end="63.50" period="1"/>
  <flow id="flow_76" type="conventional" route="n3_izquierda" departLane="best" departSpeed="max" begin="63.33" end="64.33" period="1"/>
  <flow id="flow_77" type="conventional" route="n4_recto" departLane="best" departSpeed="max" begin="64.17" end="65.17" period="1"/>
  <flow id="flow_78" type="conventional" route="n2_recto" departLane="best" departSpeed="max" begin="65.00" end="66.00" period="1"/>
  <flow id="flow_79" type="autonomous" route="n3_recto" departLane="best" departSpeed="max" begin="65.83" end="66.83" period="1"/>
  <flow id="flow_80" type="conventional" route="n3_recto" departLane="best" departSpeed="max" begin="66.67" end="67.67" period="1"/>
  <flow id="flow_81" type="conventional" route="n2_recto" departLane="best" departSpeed="max" begin="67.50" end="68.50" period="1"/>
  <flow id="flow_82" type="conventional" route="n1_recto" departLane="best" departSpeed="max" begin="68.33" end="69.33" period="1"/>
  <flow id="flow_83" type="conventional" route="n3_recto" departLane="best" departSpeed="max" begin="69.17" end="70.17" period="1"/>
  <flow id="flow_84" type="conventional" route="n3_recto" departLane="best" departSpeed="max" begin="70.00" end="71.00" period="1"/>
  <flow id="flow_85" type="conventional" route="n1_izquierda" departLane="best" departSpeed="max" begin="70.83" end="71.83" period="1"/>
  <flow id="flow_86" type="conventional" route="n3_recto" departLane="best" departSpeed="max" begin="71.67" end="72.67" period="1"/>
  <flow id="flow_87" type="conventional" route="n1_derecha" departLane="best" departSpeed="max" begin="72.50" end="73.50" period="1"/>
  <flow id="flow_88" type="autonomous" route="n1_derecha" departLane="best" departSpeed="max" begin="73.33" end="74.33" period="1"/>
  <flow id="flow_89" type="conventional" route="n4_recto" departLane="best" departSpeed="max" begin="74.17" end="75.17" period="1"/>
  <flow id="flow_90" type="conventional" route="n1_izquierda" departLane="best" departSpeed="max" begin="75.00" end="76.00" period="1"/>
  <flow id="flow_91" type="autonomous" route="n4_derecha" departLane="best" departSpeed="max" begin="75.83" end="76.83" period="1"/>
  <flow id="flow_92" type="conventional" route="n2_derecha" departLane="best" departSpeed="max" begin="76.67" end="77.67" period="1"/>
  <flow id="flow_93" type="conventional" route="n1_derecha" departLane="best" departSpeed="max" begin="77.50" end="78.50" period="1"/>
  <flow id="flow_94" type="conventional" route="n4_derecha" departLane="best" departSpeed="max" begin="78.33" end="79.33" period="1"/>
  <flow id="flow_95" type="conventional" route="n2_recto" departLane="best" departSpeed="max" begin="79.17" end="80.17" period="1"/>
  <flow id="flow_96" type="autonomous" route="n1_izquierda" departLane="best" departSpeed="max" begin="80.00" end="81.00" period="1"/>
  <flow id="flow_97" type="conventional" route="n3_derecha" departLane="best" departSpeed="max" begin="80.83" end="81.83" period="1"/>
  <flow id="flow_98" type="conventional" route="n3_recto" departLane="best" departSpeed="max" begin="81.67" end="82.67" period="1"/>
  <flow id="flow_99" type="autonomous" route="n1_recto" departLane="best" departSpeed="max" begin="82.50" end="83.50" period="1"/>
  <flow id="flow_100" type="conventional" route="n1_derecha" departLane="best" departSpeed="max" begin="83.33" end="84.33" period="1"/>
  <flow id="flow_101" type="autonomous" route="n2_izquierda" departLane="best" departSpeed="max" begin="84.17" end="85.17" period="1"/>
  <flow id="flow_102" type="conventional" route="n4_izquierda" departLane="best" departSpeed="max" begin="85.00" end="86.00" period="1"/>
  <flow id="flow_103" type="autonomous" route="n3_derecha" departLane="best" departSpeed="max" begin="85.83" end="86.83" period="1"/>
  <flow id="flow_104" type="conventional" route="n1_recto" departLane="best" departSpeed="max" begin="86.67" end="87.67" period="1"/>
  <flow id="flow_105" type="conventional" route="n2_derecha" departLane="best" departSpeed="max" begin="87.50" end="88.50" period="1"/>
  <flow id="flow_106" type="conventional" route="n3_derecha" departLane="best" departSpeed="max" begin="88.33" end="89.33" period="1"/>
  <flow id="flow_107" type="conventional" route="n1_recto" departLane="best" departSpeed="max" begin="89.17" end="90.17" period="1"/>
  <flow id="flow_108" type="conventional" route="n2_izquierda" departLane="best" departSpeed="max" begin="90.00" end="91.00" period="1"/>
  <flow id="flow_109" type="autonomous" route="n4_derecha" departLane="best" departSpeed="max" begin="90.83" end="91.83" period="1"/>
  <flow id="flow_110" type="conventional" route="n3_derecha" departLane="best" departSpeed="max" begin="91.67" end="92.67" period="1"/>
  <flow id="flow_111" type="conventional" route="n1_recto" departLane="best" departSpeed="max" begin="92.50" end="93.50" period="1"/>
  <flow id="flow_112" type="conventional" route="n1_recto" departLane="best" departSpeed="max" begin="93.33" end="94.33" period="1"/>
  <flow id="flow_113" type="conventional" route="n3_recto" departLane="best" departSpeed="max" begin="94.17" end="95.17" period="1"/>
  <flow id="flow_114" type="autonomous" route="n3_izquierda" departLane="best" departSpeed="max" begin="95.00" end="96.00" period="1"/>
  <flow id="flow_115" type="conventional" route="n1_recto" departLane="best" departSpeed="max" begin="95.83" end="96.83" period="1"/>
  <flow id="flow_116" type="conventional" route="n4_derecha" departLane="best" departSpeed="max" begin="96.67" end="97.67" period="1"/>
  <flow id="flow_117" type="conventional" route="n2_izquierda" departLane="best" departSpeed="max" begin="97.50" end="98.50" period="1"/>
  <flow id="flow_118" type="conventional" route="n1_derecha" departLane="best" departSpeed="max" begin="98.33" end="99.33" period="1"/>
  <flow id="flow_119" type="conventional" route="n2_recto" departLane="best" departSpeed="max" begin="99.17" end="100.17" period="1"/>
  <flow id="flow_120" type="conventional" route="n4_recto" departLane="best" departSpeed="max" begin="100.00" end="101.00" period="1"/>
  <flow id="flow_121" type="conventional" route="n3_izquierda" departLane="best" departSpeed="max" begin="100.83" end="101.83" period="1"/>
  <flow id="flow_122" type="conventional" route="n4_recto" departLane="best" departSpeed="max" begin="101.67" end="102.67" period="1"/>
  <flow id="flow_123" type="conventional" route="n1_recto" departLane="best" departSpeed="max" begin="102.50" end="103.50" period="1"/>
  <flow id="flow_124" type="conventional" route="n2_izquierda" departLane="best" departSpeed="max" begin="103.33" end="104.33" period="1"/>
  <flow id="flow_125" type="conventional" route="n2_recto" departLane="best" departSpeed="max" begin="104.17" end="105.17" period="1"/>
  <flow id="flow_126" type="conventional" route="n3_izquierda" departLane="best" departSpeed="max" begin="105.00" end="106.00" period="1"/>
  <flow id="flow_127" type="conventional" route="n3_izquierda" departLane="best" departSpeed="max" begin="105.83" end="106.83" period="1"/>
  <flow id="flow_128" type="conventional" route="n1_derecha" departLane="best" departSpeed="max" begin="106.67" end="107.67" period="1"/>
  <flow id="flow_129" type="conventional" route="n2_izquierda" departLane="best" departSpeed="max" begin="107.50" end="108.50" period="1"/>
  <flow id="flow_130" type="conventional" route="n1_derecha" departLane="best" departSpeed="max" begin="108.33" end="109.33" period="1"/>
  <flow id="flow_131" type="conventional" route="n3_recto" departLane="best" departSpeed="max" begin="109.17" end="110.17" period="1"/>
  <flow id="flow_132" type="conventional" route="n4_izquierda" departLane="best" departSpeed="max" begin="110.00" end="111.00" period="1"/>
  <flow id="flow_133" type="conventional" route="n4_derecha" departLane="best" departSpeed="max" begin="110.83" end="111.83" period="1"/>
  <flow id="flow_134" type="conventional" route="n2_izquierda" departLane="best" departSpeed="max" begin="111.67" end="112.67" period="1"/>
  <flow id="flow_135" type="autonomous" route="n3_derecha" departLane="best" departSpeed="max" begin="112.50" end="113.50" period="1"/>
  <flow id="flow_136" type="autonomous" route="n1_recto" departLane="best" departSpeed="max" begin="113.33" end="114.33" period="1"/>
  <flow id="flow_137" type="conventional" route="n2_izquierda" departLane="best" departSpeed="max" begin="114.17" end="115.17" period="1"/>
  <flow id="flow_138" type="conventional" route="n4_izquierda" departLane="best" departSpeed="max" begin="115.00" end="116.00" period="1"/>
  <flow id="flow_139" type="conventional" route="n2_derecha" departLane="best" departSpeed="max" begin="115.83" end="116.83" period="1"/>
  <flow id="flow_140" type="conventional" route="n4_izquierda" departLane="best" departSpeed="max" begin="116.67" end="117.67" period="1"/>
  <flow id="flow_141" type="conventional" route="n4_recto" departLane="best" departSpeed="max" begin="117.50" end="118.50" period="1"/>
  <flow id="flow_142" type="conventional" route="n2_recto" departLane="best" departSpeed="max" begin="118.33" end="119.33" period="1"/>
  <flow id="flow_143" type="conventional" route="n1_derecha" departLane="best" departSpeed="max" begin="119.17" end="120.17" period="1"/>
  <flow id="flow_144" type="conventional" route="n4_derecha" departLane="best" departSpeed="max" begin="120.00" end="121.00" period="1"/>
  <flow id="flow_145" type="conventional" route="n1_recto" departLane="best" departSpeed="max" begin="120.83" end="121.83" period="1"/>
  <flow id="flow_146" type="conventional" route="n4_izquierda" departLane="best" departSpeed="max" begin="121.67" end="122.67" period="1"/>
  <flow id="flow_147" type="autonomous" route="n2_izquierda" departLane="best" departSpeed="max" begin="122.50" end="123.50" period="1"/>
  <flow id="flow_148" type="conventional" route="n4_izquierda" departLane="best" departSpeed="max" begin="123.33" end="124.33" period="1"/>
  <flow id="flow_149" type="conventional" route="n4_derecha" departLane="best" departSpeed="max" begin="124.17" end="125.17" period="1"/>
  <flow id="flow_150" type="conventional" route="n4_recto" departLane="best" departSpeed="max" begin="125.00" end="126.00" period="1"/>
  <flow id="flow_151" type="autonomous" route="n3_izquierda" departLane="best" departSpeed="max" begin="125.83" end="126.83" period="1"/>
  <flow id="flow_152" type="conventional" route="n1_recto" departLane="best" departSpeed="max" begin="126.67" end="127.67" period="1"/>
  <flow id="flow_153" type="conventional" route="n3_recto" departLane="best" departSpeed="max" begin="127.50" end="128.50" period="1"/>
  <flow id="flow_154" type="conventional" route="n1_derecha" departLane="best" departSpeed="max" begin="128.33" end="129.33" period="1"/>
  <flow id="flow_155" type="conventional" route="n3_recto" departLane="best" departSpeed="max" begin="129.17" end="130.17" period="1"/>
  <flow id="flow_156" type="conventional" route="n4_izquierda" departLane="best" departSpeed="max" begin="130.00" end="131.00" period="1"/>
  <flow id="flow_157" type="autonomous" route="n2_derecha" departLane="best" departSpeed="max" begin="130.83" end="131.83" period="1"/>
  <flow id="flow_158" type="autonomous" route="n4_recto" departLane="best" departSpeed="max" begin="131.67" end="132.67" period="1"/>
  <flow id="flow_159" type="autonomous" route="n2_izquierda" departLane="best" departSpeed="max" begin="132.50" end="133.50" period="1"/>
  <flow id="flow_160" type="conventional" route="n1_izquierda" departLane="best" departSpeed="max" begin="133.33" end="134.33" period="1"/>
  <flow id="flow_161" type="conventional" route="n1_izquierda" departLane="best" departSpeed="max" begin="134.17" end="135.17" period="1"/>
  <flow id="flow_162" type="autonomous" route="n4_recto" departLane="best" departSpeed="max" begin="135.00" end="136.00" period="1"/>
  <flow id="flow_163" type="conventional" route="n4_derecha" departLane="best" departSpeed="max" begin="135.83" end="136.83" period="1"/>
  <flow id="flow_164" type="conventional" route="n3_recto" departLane="best" departSpeed="max" begin="136.67" end="137.67" period="1"/>
  <flow id="flow_165" type="conventional" route="n4_recto" departLane="best" departSpeed="max" begin="137.50" end="138.50" period="1"/>
  <flow id="flow_166" type="conventional" route="n2_derecha" departLane="best" departSpeed="max" begin="138.33" end="139.33" period="1"/>
  <flow id="flow_167" type="conventional" route="n3_derecha" departLane="best" departSpeed="max" begin="139.17" end="140.17" period="1"/>
  <flow id="flow_168" type="conventional" route="n4_derecha" departLane="best" departSpeed="max" begin="140.00" end="141.00" period="1"/>
  <flow id="flow_169" type="conventional" route="n4_recto" departLane="best" departSpeed="max" begin="140.83" end="141.83" period="1"/>
  <flow id="flow_170" type="conventional" route="n1_recto" departLane="best" departSpeed="max" begin="141.67" end="142.67" period="1"/>
  <flow id="flow_171" type="conventional" route="n4_izquierda" departLane="best" departSpeed="max" begin="142.50" end="143.50" period="1"/>
  <flow id="flow_172" type="conventional" route="n3_recto" departLane="best" departSpeed="max" begin="143.33" end="144.33" period="1"/>
  <flow id="flow_173" type="conventional" route="n3_izquierda" departLane="best" departSpeed="max" begin="144.17" end="145.17" period="1"/>
  <flow id="flow_174" type="autonomous" route="n3_derecha" departLane="best" departSpeed="max" begin="145.00" end="146.00" period="1"/>
  <flow id="flow_175" type="conventional" route="n1_derecha" departLane="best" departSpeed="max" begin="145.83" end="146.83" period="1"/>
  <flow id="flow_176" type="conventional" route="n3_recto" departLane="best" departSpeed="max" begin="146.67" end="147.67" period="1"/>
  <flow id="flow_177" type="autonomous" route="n1_izquierda" departLane="best" departSpeed="max" begin="147.50" end="148.50" period="1"/>
  <flow id="flow_178" type="conventional" route="n3_derecha" departLane="best" departSpeed="max" begin="148.33" end="149.33" period="1"/>
  <flow id="flow_179" type="autonomous" route="n3_derecha" departLane="best" departSpeed="max" begin="149.17" end="150.17" period="1"/>
  <flow id="flow_180" type="conventional" route="n2_derecha" departLane="best" departSpeed="max" begin="150.00" end="151.00" period="1"/>
  <flow id="flow_181" type="conventional" route="n4_izquierda" departLane="best" departSpeed="max" begin="150.83" end="151.83" period="1"/>
  <flow id="flow_182" type="autonomous" route="n4_recto" departLane="best" departSpeed="max" begin="151.67" end="152.67" period="1"/>
  <flow id="flow_183" type="autonomous" route="n3_derecha" departLane="best" departSpeed="max" begin="152.50" end="153.50" period="1"/>
  <flow id="flow_184" type="conventional" route="n3_derecha" departLane="best" departSpeed="max" begin="153.33" end="154.33" period="1"/>
  <flow id="flow_185" type="conventional" route="n2_recto" departLane="best" departSpeed="max" begin="154.17" end="155.17" period="1"/>
  <flow id="flow_186" type="conventional" route="n4_izquierda" departLane="best" departSpeed="max" begin="155.00" end="156.00" period="1"/>
  <flow id="flow_187" type="conventional" route="n3_derecha" departLane="best" departSpeed="max" begin="155.83" end="156.83" period="1"/>
  <flow id="flow_188" type="conventional" route="n1_izquierda" departLane="best" departSpeed="max" begin="156.67" end="157.67" period="1"/>
  <flow id="flow_189" type="autonomous" route="n3_recto" departLane="best" departSpeed="max" begin="157.50" end="158.50" period="1"/>
  <flow id="flow_190" type="conventional" route="n1_izquierda" departLane="best" departSpeed="max" begin="158.33" end="159.33" period="1"/>
  <flow id="flow_191" type="conventional" route="n2_derecha" departLane="best" departSpeed="max" begin="159.17" end="160.17" period="1"/>
  <flow id="flow_192" type="autonomous" route="n4_derecha" departLane="best" departSpeed="max" begin="160.00" end="161.00" period="1"/>
  <flow id="flow_193" type="conventional" route="n3_derecha" departLane="best" departSpeed="max" begin="160.83" end="161.83" period="1"/>
  <flow id="flow_194" type="conventional" route="n1_derecha" departLane="best" departSpeed="max" begin="161.67" end="162.67" period="1"/>
  <flow id="flow_195" type="conventional" route="n4_izquierda" departLane="best" departSpeed="max" begin="162.50" end="163.50" period="1"/>
  <flow id="flow_196" type="conventional" route="n1_izquierda" departLane="best" departSpeed="max" begin="163.33" end="164.33" period="1"/>
  <flow id="flow_197" type="conventional" route="n4_izquierda" departLane="best" departSpeed="max" begin="164.17" end="165.17" period="1"/>
  <flow id="flow_198" type="conventional" route="n4_izquierda" departLane="best" departSpeed="max" begin="165.00" end="166.00" period="1"/>
  <flow id="flow_199" type="conventional" route="n2_derecha" departLane="best" departSpeed="max" begin="165.83" end="166.83" period="1"/>
  <flow id="flow_200" type="conventional" route="n4_derecha" departLane="best" departSpeed="max" begin="166.67" end="167.67" period="1"/>
  <flow id="flow_201" type="conventional" route="n4_recto" departLane="best" departSpeed="max" begin="167.50" end="168.50" period="1"/>
  <flow id="flow_202" type="conventional" route="n3_izquierda" departLane="best" departSpeed="max" begin="168.33" end="169.33" period="1"/>
  <flow id="flow_203" type="autonomous" route="n2_izquierda" departLane="best" departSpeed="max" begin="169.17" end="170.17" period="1"/>
  <flow id="flow_204" type="autonomous" route="n1_izquierda" departLane="best" departSpeed="max" begin="170.00" end="171.00" period="1"/>
  <flow id="flow_205" type="conventional" route="n1_izquierda" departLane="best" departSpeed="max" begin="170.83" end="171.83" period="1"/>
  <flow id="flow_206" type="conventional" route="n4_recto" departLane="best" departSpeed="max" begin="171.67" end="172.67" period="1"/>
  <flow id="flow_207" type="conventional" route="n3_izquierda" departLane="best" departSpeed="max" begin="172.50" end="173.50" period="1"/>
  <flow id="flow_208" type="conventional" route="n4_recto" departLane="best" departSpeed="max" begin="173.33" end="174.33" period="1"/>
  <flow id="flow_209" type="conventional" route="n1_recto" departLane="best" departSpeed="max" begin="174.17" end="175.17" period="1"/>
  <flow id="flow_210" type="conventional" route="n2_derecha" departLane="best" departSpeed="max" begin="175.00" end="176.00" period="1"/>
  <flow id="flow_211" type="conventional" route="n1_recto" departLane="best" departSpeed="max" begin="175.83" end="176.83" period="1"/>
  <flow id="flow_212" type="conventional" route="n4_recto" departLane="best" departSpeed="max" begin="176.67" end="177.67" period="1"/>