<configuration>
    <input>
        <net-file value="intersection1.net.xml"/>  
        <route-files value="rutas.rou.xml"/>  
    </input>
    <time>
        <begin value="0"/>
        <end value="1000"/>
    </time>
    <report>
        <collision-output value="choques.xml"/> <!-- Registra choques -->
        
    </report>
    
    
</configuration>
